%mem = 80000MB
#p opt Amber(SoftFirst,print) freq	

Title Card Required

0 1
C-CA          1.00000        1.00000        0.00000
C-CA         -0.39900        1.00000        0.00000
C-CA          1.70000       -0.21200        0.00000
H-HA          1.54100        1.93700        0.00000
C-CA         -1.09900       -0.21200        0.00000
H-HA         -0.94000        1.93700        0.00000
C-CA         -0.39900       -1.42300        0.00000
H-HA         -2.18100       -0.21200        0.00000
C-CA          1.00000       -1.42300        0.00000
H-HA         -0.94000       -2.36100        0.00000
H-HA          1.54100       -2.36100        0.00000
H-HA          2.78200       -0.21200        0.00000

HrmStr1 CA CA  366.73  1.390
HrmStr1 CA HA  349.33  1.084
HrmBnd1 CA CA CA  97.62  120.000
HrmBnd1 CA CA HA  30.56  120.000

